@<TRIPOS>MOLECULE
KSM1
  142   141 1 0 0
SMALL
GASTEIGER

@<TRIPOS>ATOM
      1 C1      -6.2555    -4.3314    -1.8615 C.3      1 KSM1   0.014852
      2 C2      -6.9667    -3.7551    -0.6694 C.2      1 KSM1   0.216998
      3 O1      -7.8142    -4.3821    -0.0388 O.2      1 KSM1  -0.275477
      4 N1      -6.6429    -2.4531    -0.3947 N.am     1 KSM1  -0.344547
      5 C3      -7.1690    -1.7196     0.7608 C.3      1 KSM1   0.107612
      6 C4      -6.1349    -0.7476     1.3576 C.3      1 KSM1  -0.023607
      7 C5      -5.5837     0.2630     0.3504 C.3      1 KSM1  -0.049160
      8 C6      -4.6781     1.3335     0.9593 C.3      1 KSM1  -0.035607
      9 C7      -3.4350     0.7672     1.6470 C.3      1 KSM1   0.017414
     10 N2      -2.3895     1.7625     1.7537 N.am     1 KSM1  -0.354101
     11 C8      -2.4587     2.8355     2.6109 C.2      1 KSM1   0.245480
     12 O2      -3.3712     3.0150     3.4127 O.2      1 KSM1  -0.272461
     13 C9      -1.2630     3.7925     2.5083 C.3      1 KSM1   0.125380
     14 O3      -0.5931     3.8747     1.2562 O.3      1 KSM1  -0.369268
     15 C10     -1.3978     4.4570     0.2274 C.3      1 KSM1   0.070687
     16 C11     -0.4961     4.8998    -0.9250 C.3      1 KSM1   0.070091
     17 O4      -1.2731     5.2416    -2.0744 O.3      1 KSM1  -0.377253
     18 C12     -1.3391     4.1510    -3.0022 C.3      1 KSM1   0.064060
     19 C13     -2.3304     4.4664    -4.1199 C.3      1 KSM1   0.040933
     20 N3      -2.3653     3.4366    -5.1376 N.am     1 KSM1  -0.351783
     21 C14     -3.3630     3.3701    -6.0851 C.2      1 KSM1   0.245560
     22 O5      -4.3238     4.1385    -6.0916 O.2      1 KSM1  -0.272459
     23 C15     -3.1548     2.2729    -7.1439 C.3      1 KSM1   0.125381
     24 O6      -4.3023     1.9624    -7.9280 O.3      1 KSM1  -0.369268
     25 C16     -5.1342     0.9593    -7.3376 C.3      1 KSM1   0.070687
     26 C17     -4.6619    -0.4480    -7.7221 C.3      1 KSM1   0.070091
     27 O7      -5.6439    -1.4697    -7.5318 O.3      1 KSM1  -0.377253
     28 C18     -6.0228    -1.7442    -6.1798 C.3      1 KSM1   0.064059
     29 C19     -4.8987    -2.3382    -5.3198 C.3      1 KSM1   0.040846
     30 N4      -4.1715    -1.3080    -4.6112 N.am     1 KSM1  -0.353790
     31 C20     -4.5833    -0.7807    -3.4168 C.2      1 KSM1   0.219644
     32 O8      -5.5042    -1.2510    -2.7488 O.2      1 KSM1  -0.275171
     33 C21     -3.8470     0.4769    -3.0033 C.3      1 KSM1   0.028798
     34 C22     -2.5804     0.2306    -2.1864 C.3      1 KSM1  -0.018544
     35 C23     -1.3449    -0.3098    -2.9281 C.3      1 KSM1   0.068983
     36 N5      -0.1263    -0.0255    -2.1442 N.am     1 KSM1  -0.348066
     37 C24      0.2085    -0.6357    -0.9657 C.2      1 KSM1   0.219991
     38 O9      -0.4960    -1.4585    -0.3897 O.2      1 KSM1  -0.275155
     39 C25      1.5266    -0.1599    -0.3905 C.3      1 KSM1   0.026490
     40 C26      1.3184     1.1244     0.4086 C.3      1 KSM1  -0.044494
     41 C27      2.6166     1.8384     0.7949 C.3      1 KSM1  -0.052816
     42 C28      3.2032     1.4400     2.1530 C.3      1 KSM1  -0.053296
     43 C29      3.7348     0.0118     2.2918 C.3      1 KSM1  -0.053310
     44 C30      4.8437    -0.3252     1.2929 C.3      1 KSM1  -0.053310
     45 C31      5.4151    -1.7353     1.4749 C.3      1 KSM1  -0.053310
     46 C32      6.1652    -1.9908     2.7872 C.3      1 KSM1  -0.053310
     47 C33      7.3687    -1.0669     2.9870 C.3      1 KSM1  -0.053310
     48 C34      8.2192    -1.4985     4.1861 C.3      1 KSM1  -0.053310
     49 C35      9.4175    -0.5640     4.3706 C.3      1 KSM1  -0.053310
     50 C36     10.3094    -0.9289     5.5621 C.3      1 KSM1  -0.053310
     51 C37     10.9962    -2.2886     5.4072 C.3      1 KSM1  -0.053298
     52 C38     12.1522    -2.5024     6.3896 C.3      1 KSM1  -0.052951
     53 C39     11.7202    -2.5214     7.8576 C.3      1 KSM1  -0.048061
     54 C40     12.9033    -2.8307     8.7722 C.3      1 KSM1  -0.013137
     55 C41     12.5932    -2.8647    10.2718 C.2      1 KSM1   0.041378
     56 O10     11.3980    -2.6454    10.6086 O.co2    1 KSM1  -0.550177
     57 O11     13.5979    -3.1142    11.0001 O.co2    1 KSM1  -0.550177
     58 C42     -1.2490     0.2974    -4.3559 C.2      1 KSM1   0.063828
     59 O12     -1.8279    -0.3580    -5.2688 O.co2    1 KSM1  -0.547901
     60 O13     -0.6587     1.4158    -4.4446 O.co2    1 KSM1  -0.547901
     61 C43     -8.5302    -1.0413     0.4558 C.2      1 KSM1   0.241798
     62 O14     -8.8345     0.0804     0.8574 O.2      1 KSM1  -0.272765
     63 N6      -9.4441    -1.8691    -0.1654 N.am     1 KSM1  -0.357392
     64 C44    -10.7753    -1.4362    -0.4861 C.3      1 KSM1   0.006081
     65 H1      -5.2308    -3.9542    -1.9214 H        1 KSM1   0.033033
     66 H2      -6.2180    -5.4205    -1.7716 H        1 KSM1   0.033033
     67 H3      -6.7985    -4.0592    -2.7701 H        1 KSM1   0.033033
     68 H4      -6.1473    -1.9334    -1.1253 H        1 KSM1   0.163802
     69 H5      -7.3947    -2.4621     1.5390 H        1 KSM1   0.063229
     70 H6      -6.5817    -0.2118     2.2041 H        1 KSM1   0.029302
     71 H7      -5.3012    -1.3363     1.7605 H        1 KSM1   0.029302
     72 H8      -6.4068     0.7647    -0.1705 H        1 KSM1   0.026812
     73 H9      -5.0066    -0.2725    -0.4058 H        1 KSM1   0.026812
     74 H10     -4.3716     2.0109     0.1515 H        1 KSM1   0.028462
     75 H11     -5.2501     1.9434     1.6689 H        1 KSM1   0.028462
     76 H12     -3.0145    -0.0673     1.0774 H        1 KSM1   0.049116
     77 H13     -3.6818     0.4097     2.6525 H        1 KSM1   0.049116
     78 H14     -1.5798     1.6858     1.1468 H        1 KSM1   0.163035
     79 H15     -1.5877     4.7937     2.8146 H        1 KSM1   0.067101
     80 H16     -0.5260     3.4497     3.2428 H        1 KSM1   0.067101
     81 H17     -2.1313     3.7249    -0.1254 H        1 KSM1   0.059142
     82 H18     -1.9512     5.3251     0.6053 H        1 KSM1   0.059142
     83 H19      0.2620     4.1417    -1.1584 H        1 KSM1   0.059123
     84 H20      0.0547     5.7959    -0.6175 H        1 KSM1   0.059123
     85 H21     -1.6510     3.2403    -2.4818 H        1 KSM1   0.058547
     86 H22     -0.3393     3.9889    -3.4216 H        1 KSM1   0.058547
     87 H23     -3.3366     4.5997    -3.7055 H        1 KSM1   0.051543
     88 H24     -2.0671     5.4121    -4.6073 H        1 KSM1   0.051543
     89 H25     -1.6297     2.7116    -5.1166 H        1 KSM1   0.163139
     90 H26     -2.7449     1.3743    -6.6862 H        1 KSM1   0.067101
     91 H27     -2.3954     2.6578    -7.8339 H        1 KSM1   0.067101
     92 H28     -6.1469     1.1112    -7.7272 H        1 KSM1   0.059142
     93 H29     -5.1965     1.0877    -6.2511 H        1 KSM1   0.059142
     94 H30     -4.4239    -0.4499    -8.7926 H        1 KSM1   0.059123
     95 H31     -3.7260    -0.7148    -7.2257 H        1 KSM1   0.059123
     96 H32     -6.4736    -0.8545    -5.7269 H        1 KSM1   0.058547
     97 H33     -6.8174    -2.4948    -6.2554 H        1 KSM1   0.058547
     98 H34     -5.3277    -3.0172    -4.5765 H        1 KSM1   0.051541
     99 H35     -4.1796    -2.8917    -5.9313 H        1 KSM1   0.051541
    100 H36     -3.2943    -0.9589    -5.0330 H        1 KSM1   0.163050
    101 H37     -3.6559     1.0993    -3.8824 H        1 KSM1   0.036773
    102 H38     -4.5487     1.0599    -2.3936 H        1 KSM1   0.036773
    103 H39     -2.3153     1.1797    -1.7031 H        1 KSM1   0.029680
    104 H40     -2.8145    -0.4592    -1.3664 H        1 KSM1   0.029680
    105 H41     -1.4234    -1.4006    -3.0153 H        1 KSM1   0.059298
    106 H42      0.4820     0.6689    -2.5709 H        1 KSM1   0.163646
    107 H43      1.9331    -0.9626     0.2302 H        1 KSM1   0.036681
    108 H44      2.2331     0.0050    -1.2125 H        1 KSM1   0.036681
    109 H45      0.7294     1.8180    -0.2049 H        1 KSM1   0.027171
    110 H46      0.7104     0.9207     1.2981 H        1 KSM1   0.027171
    111 H47      2.3875     2.9108     0.8602 H        1 KSM1   0.026669
    112 H48      3.3652     1.7466     0.0006 H        1 KSM1   0.026669
    113 H49      2.4443     1.6043     2.9285 H        1 KSM1   0.026655
    114 H50      4.0226     2.1338     2.3822 H        1 KSM1   0.026655
    115 H51      2.9130    -0.7059     2.2029 H        1 KSM1   0.026655
    116 H52      4.1204    -0.0936     3.3126 H        1 KSM1   0.026655
    117 H53      4.4464    -0.2633     0.2737 H        1 KSM1   0.026655
    118 H54      5.6443     0.4200     1.3546 H        1 KSM1   0.026655
    119 H55      6.0971    -1.9389     0.6395 H        1 KSM1   0.026655
    120 H56      4.6002    -2.4650     1.3899 H        1 KSM1   0.026655
    121 H57      5.4826    -1.9008     3.6396 H        1 KSM1   0.026655
    122 H58      6.5094    -3.0328     2.7781 H        1 KSM1   0.026655
    123 H59      7.0256    -0.0376     3.1417 H        1 KSM1   0.026655
    124 H60      7.9893    -1.0717     2.0826 H        1 KSM1   0.026655
    125 H61      7.6062    -1.4961     5.0952 H        1 KSM1   0.026655
    126 H62      8.5644    -2.5261     4.0276 H        1 KSM1   0.026655
    127 H63      9.0523     0.4603     4.5161 H        1 KSM1   0.026655
    128 H64     10.0222    -0.5539     3.4553 H        1 KSM1   0.026655
    129 H65     11.0728    -0.1476     5.6637 H        1 KSM1   0.026655
    130 H66      9.7125    -0.9129     6.4813 H        1 KSM1   0.026655
    131 H67     10.2631    -3.0940     5.5316 H        1 KSM1   0.026655
    132 H68     11.3976    -2.3780     4.3902 H        1 KSM1   0.026655
    133 H69     12.9077    -1.7216     6.2381 H        1 KSM1   0.026667
    134 H70     12.6346    -3.4571     6.1452 H        1 KSM1   0.026667
    135 H71     10.9349    -3.2735     8.0011 H        1 KSM1   0.027035
    136 H72     11.2914    -1.5519     8.1356 H        1 KSM1   0.027035
    137 H73     13.3270    -3.8061     8.5022 H        1 KSM1   0.032854
    138 H74     13.6890    -2.0808     8.6159 H        1 KSM1   0.032854
    139 H75     -9.1804    -2.8424    -0.3042 H        1 KSM1   0.162675
    140 H76    -11.3850    -1.4784     0.4202 H        1 KSM1   0.045452
    141 H77    -10.7589    -0.4115    -0.8668 H        1 KSM1   0.045452
    142 H78    -11.1887    -2.1084    -1.2414 H        1 KSM1   0.045452
@<TRIPOS>BOND
     1     1     2   1
     2     2     3   2
     3     2     4  am
     4     4     5   1
     5     5     6   1
     6     6     7   1
     7     7     8   1
     8     8     9   1
     9     9    10   1
    10    10    11  am
    11    11    12   2
    12    11    13   1
    13    13    14   1
    14    14    15   1
    15    15    16   1
    16    16    17   1
    17    17    18   1
    18    18    19   1
    19    19    20   1
    20    20    21  am
    21    21    22   2
    22    21    23   1
    23    23    24   1
    24    24    25   1
    25    25    26   1
    26    26    27   1
    27    27    28   1
    28    28    29   1
    29    29    30   1
    30    30    31  am
    31    31    32   2
    32    31    33   1
    33    33    34   1
    34    34    35   1
    35    35    36   1
    36    36    37  am
    37    37    38   2
    38    37    39   1
    39    39    40   1
    40    40    41   1
    41    41    42   1
    42    42    43   1
    43    43    44   1
    44    44    45   1
    45    45    46   1
    46    46    47   1
    47    47    48   1
    48    48    49   1
    49    49    50   1
    50    50    51   1
    51    51    52   1
    52    52    53   1
    53    53    54   1
    54    54    55   1
    55    55    56  ar
    56    55    57  ar
    57    35    58   1
    58    58    59  ar
    59    58    60  ar
    60     5    61   1
    61    61    62   2
    62    61    63  am
    63    63    64   1
    64     1    65   1
    65     1    66   1
    66     1    67   1
    67     4    68   1
    68     5    69   1
    69     6    70   1
    70     6    71   1
    71     7    72   1
    72     7    73   1
    73     8    74   1
    74     8    75   1
    75     9    76   1
    76     9    77   1
    77    10    78   1
    78    13    79   1
    79    13    80   1
    80    15    81   1
    81    15    82   1
    82    16    83   1
    83    16    84   1
    84    18    85   1
    85    18    86   1
    86    19    87   1
    87    19    88   1
    88    20    89   1
    89    23    90   1
    90    23    91   1
    91    25    92   1
    92    25    93   1
    93    26    94   1
    94    26    95   1
    95    28    96   1
    96    28    97   1
    97    29    98   1
    98    29    99   1
    99    30   100   1
   100    33   101   1
   101    33   102   1
   102    34   103   1
   103    34   104   1
   104    35   105   1
   105    36   106   1
   106    39   107   1
   107    39   108   1
   108    40   109   1
   109    40   110   1
   110    41   111   1
   111    41   112   1
   112    42   113   1
   113    42   114   1
   114    43   115   1
   115    43   116   1
   116    44   117   1
   117    44   118   1
   118    45   119   1
   119    45   120   1
   120    46   121   1
   121    46   122   1
   122    47   123   1
   123    47   124   1
   124    48   125   1
   125    48   126   1
   126    49   127   1
   127    49   128   1
   128    50   129   1
   129    50   130   1
   130    51   131   1
   131    51   132   1
   132    52   133   1
   133    52   134   1
   134    53   135   1
   135    53   136   1
   136    54   137   1
   137    54   138   1
   138    63   139   1
   139    64   140   1
   140    64   141   1
   141    64   142   1
@<TRIPOS>SUBSTRUCTURE
     1 KSM1        1 GROUP             0 ****  ****    0 ROOT
